Circuit: * E:\Elektronika\KiCAD\ESP8266_MotherBoard\LTSpice\PWM_modul.asc

Direct Newton iteration for .op point succeeded.

Date: Sun Nov 05 23:01:42 2023
Total elapsed time: 0.244 seconds.

tnom = 27
temp = 27
method = modified trap
totiter = 2135
traniter = 2096
tranpoints = 1045
accept = 1045
rejected = 0
matrix size = 17
fillins = 1
solver = Normal
Matrix Compiler1: 1008 bytes object code size  0.2/0.1/[0.1]
Matrix Compiler2: off  [0.2]/0.3/0.2

